470
  -OEChem-03231300073D

 18 17  0     1  0  0  0  0  0999 V2000
    1.0306    1.6399   -0.7243 O   0  0  0  0  0  0  0  0  0  0  0  0
    1.8454    0.5515    1.0905 O   0  0  0  0  0  0  0  0  0  0  0  0
    1.2894   -1.8469   -0.1464 N   0  0  0  0  0  0  0  0  0  0  0  0
   -3.1271    0.2139    0.3789 N   0  0  0  0  0  0  0  0  0  0  0  0
   -0.9234   -0.8189    0.0722 C   0  0  0  0  0  0  0  0  0  0  0  0
    0.4864   -0.6787   -0.5160 C   0  0  1  0  0  0  0  0  0  0  0  0
   -1.8029    0.4035   -0.2036 C   0  0  0  0  0  0  0  0  0  0  0  0
    1.2016    0.5357    0.0487 C   0  0  0  0  0  0  0  0  0  0  0  0
   -1.4018   -1.7164   -0.3424 H   0  0  0  0  0  0  0  0  0  0  0  0
   -0.8579   -0.9676    1.1593 H   0  0  0  0  0  0  0  0  0  0  0  0
    0.4512   -0.6051   -1.6086 H   0  0  0  0  0  0  0  0  0  0  0  0
   -1.3711    1.3052    0.2400 H   0  0  0  0  0  0  0  0  0  0  0  0
   -1.8971    0.5673   -1.2825 H   0  0  0  0  0  0  0  0  0  0  0  0
    2.1982   -1.7955   -0.6058 H   0  0  0  0  0  0  0  0  0  0  0  0
    0.8424   -2.6929   -0.4982 H   0  0  0  0  0  0  0  0  0  0  0  0
   -3.5711   -0.6038   -0.0372 H   0  0  0  0  0  0  0  0  0  0  0  0
   -3.7172    1.0105    0.1425 H   0  0  0  0  0  0  0  0  0  0  0  0
    1.4839    2.4238   -0.3471 H   0  0  0  0  0  0  0  0  0  0  0  0
  1  8  1  0  0  0  0
  1 18  1  0  0  0  0
  2  8  2  0  0  0  0
  3  6  1  0  0  0  0
  3 14  1  0  0  0  0
  3 15  1  0  0  0  0
  4  7  1  0  0  0  0
  4 16  1  0  0  0  0
  4 17  1  0  0  0  0
  5  6  1  0  0  0  0
  5  7  1  0  0  0  0
  5  9  1  0  0  0  0
  5 10  1  0  0  0  0
  6  8  1  0  0  0  0
  6 11  1  0  0  0  0
  7 12  1  0  0  0  0
  7 13  1  0  0  0  0
M  END
> <PUBCHEM_COMPOUND_CID>
470
$$$$